
  EPA STORM WATER MANAGEMENT MODEL - VERSION 5.1 (Build 5.1.009)
  --------------------------------------------------------------

  
  *********************************************************
  NOTE: The summary statistics displayed in this report are
  based on results found at every computational time step,  
  not just on results from each reporting time step.
  *********************************************************
  
  ****************
  Analysis Options
  ****************
  Flow Units ............... CMS
  Process Models:
    Rainfall/Runoff ........ NO
    RDII ................... NO
    Snowmelt ............... NO
    Groundwater ............ NO
    Flow Routing ........... YES
    Ponding Allowed ........ NO
    Water Quality .......... YES
  Flow Routing Method ...... KINWAVE
  Starting Date ............ JUN-13-2016 00:00:00
  Ending Date .............. JUN-13-2016 04:00:00
  Antecedent Dry Days ...... 0.0
  Report Time Step ......... 00:01:00
  Routing Time Step ........ 30.00 sec
  
  
  **************************        Volume        Volume
  Flow Routing Continuity        hectare-m      10^6 ltr
  **************************     ---------     ---------
  Dry Weather Inflow .......         0.000         0.000
  Wet Weather Inflow .......         0.000         0.000
  Groundwater Inflow .......         0.000         0.000
  RDII Inflow ..............         0.000         0.000
  External Inflow ..........        96.362       963.630
  External Outflow .........         0.668         6.676
  Flooding Loss ............        95.447       954.483
  Evaporation Loss .........         0.000         0.000
  Exfiltration Loss ........         0.000         0.000
  Initial Stored Volume ....         0.000         0.000
  Final Stored Volume ......         0.412         4.117
  Continuity Error (%) .....        -0.171
  
  
  **************************           BOD
  Quality Routing Continuity            kg
  **************************    ----------
  Dry Weather Inflow .......         0.000
  Wet Weather Inflow .......         0.000
  Groundwater Inflow .......         0.000
  RDII Inflow ..............         0.000
  External Inflow ..........        79.401
  External Outflow .........         1.088
  Flooding Loss ............        78.349
  Exfiltration Loss ........         0.000
  Mass Reacted .............         0.000
  Initial Stored Mass ......         0.000
  Final Stored Mass ........         0.000
  Continuity Error (%) .....        -0.046
  
  
  ********************************
  Highest Flow Instability Indexes
  ********************************
  Link GQ139 (2)
  Link GQ138 (2)
  Link GQ137 (2)
  
  
  *************************
  Routing Time Step Summary
  *************************
  Minimum Time Step           :    29.00 sec
  Average Time Step           :    30.00 sec
  Maximum Time Step           :    30.00 sec
  Percent in Steady State     :     0.00
  Average Iterations per Step :     1.03
  Percent Not Converging      :     0.00
  
  
  ******************
  Node Depth Summary
  ******************
  
  ---------------------------------------------------------------------------------
                                 Average  Maximum  Maximum  Time of Max    Reported
                                   Depth    Depth      HGL   Occurrence   Max Depth
  Node                 Type       Meters   Meters   Meters  days hr:min      Meters
  ---------------------------------------------------------------------------------
  1                    JUNCTION     0.77     0.80   201.30     0  00:20        0.24
  3                    JUNCTION     3.78     4.00   205.10     0  00:16        1.22
  2                    JUNCTION     3.79     4.00   205.50     0  00:14        1.22
  60                   JUNCTION     3.82     4.00   205.90     0  00:12        1.22
  59                   JUNCTION     3.86     4.00   206.30     0  00:10        1.22
  57                   JUNCTION     3.79     4.00   206.70     0  00:15        1.22
  56                   JUNCTION     0.60     0.60   203.70     0  00:01        0.18
  53                   JUNCTION     4.00     4.00   207.70     0  00:00        1.22
  65                   JUNCTION     4.00     4.00   205.70     0  00:00        1.22
  63                   JUNCTION     3.98     4.00   206.10     0  00:01        1.22
  61                   JUNCTION     4.00     4.00   206.50     0  00:00        1.22
  4                    JUNCTION     4.00     4.00   206.90     0  00:00        1.22
  64                   JUNCTION     4.00     4.00   206.50     0  00:00        1.22
  62                   JUNCTION     4.00     4.00   206.90     0  00:00        1.22
  58                   JUNCTION     4.00     4.00   206.90     0  00:00        1.22
  55                   JUNCTION     4.00     4.00   207.30     0  00:00        1.22
  54                   JUNCTION     4.00     4.00   207.70     0  00:00        1.22
  5                    JUNCTION     3.98     4.00   206.50     0  00:01        1.22
  6                    JUNCTION     4.00     4.00   206.90     0  00:00        1.22
  7                    JUNCTION     3.99     4.00   206.90     0  00:01        1.22
  9                    JUNCTION     4.00     4.00   207.30     0  00:00        1.22
  8                    JUNCTION     4.00     4.00   207.30     0  00:00        1.22
  51                   JUNCTION     3.77     4.00   205.10     0  00:15        1.22
  21                   JUNCTION     3.80     4.00   205.50     0  00:14        1.22
  25                   JUNCTION     3.74     4.00   205.90     0  00:18        1.22
  27                   JUNCTION     0.60     0.60   202.90     0  00:07        0.18
  30                   JUNCTION     3.99     4.00   206.90     0  00:01        1.22
  28                   JUNCTION     4.00     4.00   207.30     0  00:00        1.22
  11                   JUNCTION     3.80     4.00   205.50     0  00:14        1.22
  47                   JUNCTION     3.83     4.00   205.90     0  00:12        1.22
  10                   JUNCTION     3.76     4.00   206.30     0  00:17        1.22
  14                   JUNCTION     0.60     0.60   203.30     0  00:01        0.18
  15                   JUNCTION     4.00     4.00   207.30     0  00:00        1.22
  50                   JUNCTION     3.99     4.00   206.10     0  00:01        1.22
  48                   JUNCTION     4.00     4.00   206.50     0  00:00        1.22
  49                   JUNCTION     4.00     4.00   206.50     0  00:00        1.22
  46                   JUNCTION     4.00     4.00   206.50     0  00:00        1.22
  12                   JUNCTION     4.00     4.00   206.90     0  00:00        1.22
  52                   JUNCTION     4.00     4.00   206.90     0  00:00        1.22
  13                   JUNCTION     4.00     4.00   206.90     0  00:00        1.22
  16                   JUNCTION     3.99     4.00   207.30     0  00:01        1.22
  18                   JUNCTION     4.00     4.00   207.70     0  00:00        1.22
  17                   JUNCTION     4.00     4.00   207.70     0  00:00        1.22
  44                   JUNCTION     3.98     4.00   206.10     0  00:01        1.22
  42                   JUNCTION     3.98     4.00   206.50     0  00:02        1.22
  40                   JUNCTION     3.98     4.00   206.90     0  00:01        1.22
  38                   JUNCTION     3.99     4.00   207.30     0  00:01        1.22
  37                   JUNCTION     4.00     4.00   207.70     0  00:00        1.22
  19                   JUNCTION     3.99     4.00   207.70     0  00:01        1.22
  45                   JUNCTION     4.00     4.00   208.10     0  00:00        1.22
  20                   JUNCTION     4.00     4.00   208.10     0  00:00        1.22
  39                   JUNCTION     4.00     4.00   207.30     0  00:00        1.22
  41                   JUNCTION     4.00     4.00   206.90     0  00:00        1.22
  43                   JUNCTION     4.00     4.00   206.50     0  00:00        1.22
  26                   JUNCTION     3.98     4.00   206.50     0  00:02        1.22
  23                   JUNCTION     3.98     4.00   206.90     0  00:01        1.22
  34                   JUNCTION     3.99     4.00   207.30     0  00:01        1.22
  36                   JUNCTION     4.00     4.00   207.70     0  00:00        1.22
  35                   JUNCTION     4.00     4.00   207.70     0  00:00        1.22
  22                   JUNCTION     4.00     4.00   207.30     0  00:00        1.22
  24                   JUNCTION     4.00     4.00   206.90     0  00:00        1.22
  29                   JUNCTION     4.00     4.00   207.30     0  00:00        1.22
  33                   JUNCTION     3.99     4.00   206.90     0  00:01        1.22
  31                   JUNCTION     4.00     4.00   207.30     0  00:00        1.22
  32                   JUNCTION     4.00     4.00   207.30     0  00:00        1.22
  PFK1                 OUTFALL      0.67     0.71   200.71     0  03:59        0.22
  
  
  *******************
  Node Inflow Summary
  *******************
  
  -------------------------------------------------------------------------------------------------
                                  Maximum  Maximum                  Lateral       Total        Flow
                                  Lateral    Total  Time of Max      Inflow      Inflow     Balance
                                   Inflow   Inflow   Occurrence      Volume      Volume       Error
  Node                 Type           CMS      CMS  days hr:min    10^6 ltr    10^6 ltr     Percent
  -------------------------------------------------------------------------------------------------
  1                    JUNCTION     0.000    0.525     0  00:23           0        6.84       0.000
  3                    JUNCTION     0.000    0.359     0  00:21           0        4.66       0.028
  2                    JUNCTION     0.000    0.358     0  00:20           0        4.67       0.028
  60                   JUNCTION     0.000    0.359     0  00:20           0         4.7       0.027
  59                   JUNCTION     0.000    0.341     0  02:34           0        4.75       0.028
  57                   JUNCTION     0.000    0.257     0  01:55           0        3.64       0.002
  56                   JUNCTION     0.000    0.171     0  00:01           0        2.46       0.000
  53                   JUNCTION     2.000    2.000     0  00:00        28.8        28.8       0.100
  65                   JUNCTION     3.000    3.000     0  00:00        43.2        43.1       0.101
  63                   JUNCTION     0.000    0.177     0  00:06           0        2.45       0.053
  61                   JUNCTION     0.000    0.171     0  00:01           0        2.46       0.052
  4                    JUNCTION     2.000    2.000     0  00:00        28.8        28.8       0.100
  64                   JUNCTION     1.000    1.000     0  00:00        14.4        14.4       0.095
  62                   JUNCTION     3.000    3.000     0  00:00        43.2        43.1       0.101
  58                   JUNCTION     2.000    2.000     0  00:00        28.8        28.8       0.100
  55                   JUNCTION     2.000    2.000     0  00:00        28.8        28.8       0.100
  54                   JUNCTION     1.000    1.000     0  00:00        14.4        14.4       0.095
  5                    JUNCTION     0.000    0.177     0  00:07           0        2.45       0.053
  6                    JUNCTION     2.000    2.000     0  00:00        28.8        28.8       0.100
  7                    JUNCTION     0.000    0.171     0  00:01           0        2.46       0.052
  9                    JUNCTION     1.000    1.000     0  00:00        14.4        14.4       0.095
  8                    JUNCTION     1.000    1.000     0  00:00        14.4        14.4       0.095
  51                   JUNCTION     0.000    0.531     0  00:21           0        6.86       0.055
  21                   JUNCTION     0.000    0.341     0  03:59           0        4.68       0.028
  25                   JUNCTION     0.000    0.257     0  01:59           0        3.58       0.002
  27                   JUNCTION     0.000    0.183     0  00:06           0        2.44       0.000
  30                   JUNCTION     0.000    0.171     0  00:01           0        2.46       0.052
  28                   JUNCTION    10.000   10.000     0  00:00         144         144       0.103
  11                   JUNCTION     0.000    0.358     0  00:22           0        4.68       0.027
  47                   JUNCTION     0.000    0.341     0  02:36           0        4.72       0.028
  10                   JUNCTION     0.000    0.257     0  01:57           0        3.62       0.002
  14                   JUNCTION     0.000    0.177     0  00:07           0        2.44       0.000
  15                   JUNCTION     1.000    1.000     0  00:00        14.4        14.4       0.095
  50                   JUNCTION     0.000    0.171     0  00:01           0        2.46       0.052
  48                   JUNCTION     2.000    2.000     0  00:00        28.8        28.8       0.100
  49                   JUNCTION     1.000    1.000     0  00:00        14.4        14.4       0.095
  46                   JUNCTION     0.000    0.171     0  00:00           0        2.46       0.052
  12                   JUNCTION     3.000    3.000     0  00:00        43.2        43.1       0.101
  52                   JUNCTION     4.000    4.000     0  00:00        57.6        57.5       0.102
  13                   JUNCTION     1.000    1.000     0  00:00        14.4        14.4       0.095
  16                   JUNCTION     0.000    0.171     0  00:01           0        2.46       0.052
  18                   JUNCTION     1.000    1.000     0  00:00        14.4        14.4       0.095
  17                   JUNCTION     2.000    2.000     0  00:00        28.8        28.8       0.100
  44                   JUNCTION     0.000    0.176     0  00:08           0        2.44       0.053
  42                   JUNCTION     0.000    0.177     0  00:08           0        2.44       0.053
  40                   JUNCTION     0.000    0.178     0  00:07           0        2.44       0.053
  38                   JUNCTION     0.000    0.178     0  00:06           0        2.45       0.052
  37                   JUNCTION     2.000    2.000     0  00:00        28.8        28.8       0.100
  19                   JUNCTION     0.000    0.171     0  00:01           0        2.46       0.052
  45                   JUNCTION     1.000    1.000     0  00:00        14.4        14.4       0.095
  20                   JUNCTION     3.000    3.000     0  00:00        43.2        43.1       0.101
  39                   JUNCTION     1.000    1.000     0  00:00        14.4        14.4       0.095
  41                   JUNCTION     2.000    2.000     0  00:00        28.8        28.8       0.100
  43                   JUNCTION     3.000    3.000     0  00:00        43.2        43.1       0.101
  26                   JUNCTION     0.000    0.178     0  00:08           0        2.44       0.053
  23                   JUNCTION     0.000    0.177     0  00:06           0        2.45       0.053
  34                   JUNCTION     0.000    0.171     0  00:01           0        2.46       0.052
  36                   JUNCTION     1.000    1.000     0  00:00        14.4        14.4       0.095
  35                   JUNCTION     3.000    3.000     0  00:00        43.2        43.1       0.101
  22                   JUNCTION     1.000    1.000     0  00:00        14.4        14.4       0.095
  24                   JUNCTION     1.000    1.000     0  00:00        14.4        14.4       0.095
  29                   JUNCTION     1.000    1.000     0  00:00        14.4        14.4       0.095
  33                   JUNCTION     0.000    0.171     0  00:01           0        2.46       0.052
  31                   JUNCTION     2.000    2.000     0  00:00        28.8        28.8       0.100
  32                   JUNCTION     1.000    1.000     0  00:00        14.4        14.4       0.095
  PFK1                 OUTFALL      0.000    0.505     0  03:59           0        6.68       0.000
  
  
  **********************
  Node Surcharge Summary
  **********************
  
  Surcharging occurs when water rises above the top of the highest conduit.
  ---------------------------------------------------------------------
                                               Max. Height   Min. Depth
                                   Hours       Above Crown    Below Rim
  Node                 Type      Surcharged         Meters       Meters
  ---------------------------------------------------------------------
  1                    JUNCTION        4.00          0.800        3.200
  3                    JUNCTION        4.00          4.000        0.000
  2                    JUNCTION        4.00          4.000        0.000
  60                   JUNCTION        4.00          4.000        0.000
  59                   JUNCTION        4.00          4.000        0.000
  57                   JUNCTION        4.00          4.000        0.000
  56                   JUNCTION        4.00          0.600        3.400
  53                   JUNCTION        4.00          4.000        0.000
  65                   JUNCTION        4.00          4.000        0.000
  63                   JUNCTION        4.00          4.000        0.000
  61                   JUNCTION        4.00          4.000        0.000
  4                    JUNCTION        4.00          4.000        0.000
  64                   JUNCTION        4.00          4.000        0.000
  62                   JUNCTION        4.00          4.000        0.000
  58                   JUNCTION        4.00          4.000        0.000
  55                   JUNCTION        4.00          4.000        0.000
  54                   JUNCTION        4.00          4.000        0.000
  5                    JUNCTION        4.00          4.000        0.000
  6                    JUNCTION        4.00          4.000        0.000
  7                    JUNCTION        4.00          4.000        0.000
  9                    JUNCTION        4.00          4.000        0.000
  8                    JUNCTION        4.00          4.000        0.000
  51                   JUNCTION        4.00          4.000        0.000
  21                   JUNCTION        4.00          4.000        0.000
  25                   JUNCTION        4.00          4.000        0.000
  27                   JUNCTION        4.00          0.600        3.400
  30                   JUNCTION        4.00          4.000        0.000
  28                   JUNCTION        4.00          4.000        0.000
  11                   JUNCTION        4.00          4.000        0.000
  47                   JUNCTION        4.00          4.000        0.000
  10                   JUNCTION        4.00          4.000        0.000
  14                   JUNCTION        4.00          0.600        3.400
  15                   JUNCTION        4.00          4.000        0.000
  50                   JUNCTION        4.00          4.000        0.000
  48                   JUNCTION        4.00          4.000        0.000
  49                   JUNCTION        4.00          4.000        0.000
  46                   JUNCTION        4.00          4.000        0.000
  12                   JUNCTION        4.00          4.000        0.000
  52                   JUNCTION        4.00          4.000        0.000
  13                   JUNCTION        4.00          4.000        0.000
  16                   JUNCTION        4.00          4.000        0.000
  18                   JUNCTION        4.00          4.000        0.000
  17                   JUNCTION        4.00          4.000        0.000
  44                   JUNCTION        4.00          4.000        0.000
  42                   JUNCTION        4.00          4.000        0.000
  40                   JUNCTION        4.00          4.000        0.000
  38                   JUNCTION        4.00          4.000        0.000
  37                   JUNCTION        4.00          4.000        0.000
  19                   JUNCTION        4.00          4.000        0.000
  45                   JUNCTION        4.00          4.000        0.000
  20                   JUNCTION        4.00          4.000        0.000
  39                   JUNCTION        4.00          4.000        0.000
  41                   JUNCTION        4.00          4.000        0.000
  43                   JUNCTION        4.00          4.000        0.000
  26                   JUNCTION        4.00          4.000        0.000
  23                   JUNCTION        4.00          4.000        0.000
  34                   JUNCTION        4.00          4.000        0.000
  36                   JUNCTION        4.00          4.000        0.000
  35                   JUNCTION        4.00          4.000        0.000
  22                   JUNCTION        4.00          4.000        0.000
  24                   JUNCTION        4.00          4.000        0.000
  29                   JUNCTION        4.00          4.000        0.000
  33                   JUNCTION        4.00          4.000        0.000
  31                   JUNCTION        4.00          4.000        0.000
  32                   JUNCTION        4.00          4.000        0.000
  
  
  *********************
  Node Flooding Summary
  *********************
  
  Flooding refers to all water that overflows a node, whether it ponds or not.
  --------------------------------------------------------------------------
                                                             Total   Maximum
                                 Maximum   Time of Max       Flood    Ponded
                        Hours       Rate    Occurrence      Volume    Volume
  Node                 Flooded       CMS   days hr:min    10^6 ltr   1000 m3
  --------------------------------------------------------------------------
  3                       3.74     0.106      0  00:22       1.147     0.000
  2                       3.77     0.105      0  00:20       1.155     0.000
  60                      3.80     0.106      0  00:21       1.164     0.000
  59                      3.83     0.088      0  02:35       1.187     0.000
  57                      3.75     0.004      0  01:56       0.059     0.000
  53                      4.00     1.914      0  00:01      27.533     0.000
  65                      4.00     2.914      0  00:01      41.916     0.000
  63                      3.98     0.091      0  00:06       1.219     0.000
  61                      4.00     0.086      0  00:01       1.230     0.000
  4                       4.00     1.914      0  00:01      27.533     0.000
  64                      4.00     0.914      0  00:01      13.151     0.000
  62                      4.00     2.914      0  00:01      41.916     0.000
  58                      4.00     1.914      0  00:01      27.533     0.000
  55                      4.00     1.914      0  00:01      27.533     0.000
  54                      4.00     0.914      0  00:01      13.151     0.000
  5                       3.98     0.091      0  00:07       1.216     0.000
  6                       4.00     1.914      0  00:01      27.533     0.000
  7                       3.99     0.086      0  00:02       1.227     0.000
  9                       4.00     0.914      0  00:01      13.151     0.000
  8                       4.00     0.914      0  00:01      13.151     0.000
  51                      3.76     0.276      0  00:21       3.387     0.000
  21                      3.77     0.088      0  03:59       1.169     0.000
  25                      3.70     0.004      0  02:00       0.058     0.000
  30                      3.99     0.086      0  00:02       1.228     0.000
  28                      4.00     9.914      0  00:01     142.593     0.000
  11                      3.77     0.106      0  00:22       1.156     0.000
  47                      3.80     0.088      0  03:59       1.177     0.000
  10                      3.72     0.004      0  01:58       0.058     0.000
  15                      4.00     0.914      0  00:01      13.151     0.000
  50                      3.99     0.086      0  00:02       1.228     0.000
  48                      4.00     1.914      0  00:01      27.533     0.000
  49                      4.00     0.914      0  00:01      13.151     0.000
  46                      4.00     0.086      0  00:01       1.232     0.000
  12                      4.00     2.914      0  00:01      41.916     0.000
  52                      4.00     3.914      0  00:01      56.298     0.000
  13                      4.00     0.914      0  00:01      13.151     0.000
  16                      3.99     0.086      0  00:02       1.228     0.000
  18                      4.00     0.914      0  00:01      13.151     0.000
  17                      4.00     1.914      0  00:01      27.533     0.000
  44                      3.98     0.090      0  00:08       1.211     0.000
  42                      3.97     0.090      0  00:08       1.210     0.000
  40                      3.98     0.091      0  00:07       1.214     0.000
  38                      3.99     0.091      0  00:06       1.219     0.000
  37                      4.00     1.914      0  00:01      27.533     0.000
  19                      3.99     0.086      0  00:02       1.228     0.000
  45                      4.00     0.914      0  00:01      13.151     0.000
  20                      4.00     2.914      0  00:01      41.916     0.000
  39                      4.00     0.914      0  00:01      13.151     0.000
  41                      4.00     1.914      0  00:01      27.533     0.000
  43                      4.00     2.914      0  03:59      41.916     0.000
  26                      3.97     0.091      0  00:08       1.211     0.000
  23                      3.98     0.090      0  00:06       1.217     0.000
  34                      3.99     0.086      0  00:02       1.228     0.000
  36                      4.00     0.914      0  00:01      13.151     0.000
  35                      4.00     2.914      0  03:59      41.916     0.000
  22                      4.00     0.914      0  00:01      13.151     0.000
  24                      4.00     0.914      0  00:01      13.151     0.000
  29                      4.00     0.914      0  00:01      13.151     0.000
  33                      3.99     0.086      0  00:02       1.228     0.000
  31                      4.00     1.914      0  00:01      27.533     0.000
  32                      4.00     0.914      0  00:01      13.151     0.000
  
  
  ***********************
  Outfall Loading Summary
  ***********************
  
  -------------------------------------------------------------------------
                         Flow       Avg       Max       Total         Total
                         Freq      Flow      Flow      Volume           BOD
  Outfall Node           Pcnt       CMS       CMS    10^6 ltr            kg
  -------------------------------------------------------------------------
  PFK1                  98.33     0.472     0.505       6.676         1.088
  -------------------------------------------------------------------------
  System                98.33     0.472     0.505       6.676         1.088
  
  
  ********************
  Link Flow Summary
  ********************
  
  -----------------------------------------------------------------------------
                                 Maximum  Time of Max   Maximum    Max/    Max/
                                  |Flow|   Occurrence   |Veloc|    Full    Full
  Link                 Type          CMS  days hr:min     m/sec    Flow   Depth
  -----------------------------------------------------------------------------
  GQ132                CONDUIT     0.086     0  00:01      0.68    1.00    1.00
  GQ133                CONDUIT     0.171     0  01:55      0.96    0.68    0.60
  GQ134                CONDUIT     0.255     0  02:34      0.95    1.01    0.91
  GQ135                CONDUIT     0.273     0  00:20      0.98    1.08    1.00
  GQ136                CONDUIT     0.272     0  00:20      0.98    1.08    1.00
  GQ137                CONDUIT     0.273     0  00:21      0.98    1.08    1.00
  GQ138                CONDUIT     0.273     0  00:23      0.98    1.08    1.00
  GQ139                CONDUIT     0.505     0  03:59      1.23    0.93    0.76
  GQ140                CONDUIT     0.086     0  00:01      0.68    1.00    1.00
  GQ141                CONDUIT     0.092     0  00:06      0.74    1.07    1.00
  GQ142                CONDUIT     0.091     0  00:07      0.74    1.06    1.00
  GQ143                CONDUIT     0.086     0  00:00      0.68    1.00    1.00
  GQ144                CONDUIT     0.086     0  00:01      0.68    1.00    1.00
  GQ145                CONDUIT     0.086     0  00:01      0.68    1.00    1.00
  GQ146                CONDUIT     0.086     0  00:01      0.68    1.00    1.00
  GQ147                CONDUIT     0.092     0  00:07      0.74    1.07    1.00
  GQ148                CONDUIT     0.086     0  00:01      0.68    1.00    1.00
  GQ149                CONDUIT     0.092     0  00:07      0.74    1.07    1.00
  GQ150                CONDUIT     0.086     0  00:01      0.68    1.00    1.00
  GQ151                CONDUIT     0.086     0  00:01      0.68    1.00    1.00
  GQ152                CONDUIT     0.086     0  00:01      0.68    1.00    1.00
  GQ153                CONDUIT     0.086     0  00:00      0.68    1.00    1.00
  GQ154                CONDUIT     0.086     0  00:00      0.68    1.00    1.00
  GQ155                CONDUIT     0.086     0  00:01      0.68    1.00    1.00
  GQ156                CONDUIT     0.092     0  00:06      0.74    1.08    1.00
  GQ157                CONDUIT     0.171     0  01:59      0.96    0.68    0.60
  GQ158                CONDUIT     0.255     0  03:59      0.94    1.01    0.91
  GQ159                CONDUIT     0.273     0  00:24      0.98    1.08    1.00
  GQ160                CONDUIT     0.273     0  00:19      0.98    1.08    1.00
  GQ161                CONDUIT     0.086     0  00:01      0.68    1.00    1.00
  GQ162                CONDUIT     0.092     0  00:07      0.74    1.07    1.00
  GQ163                CONDUIT     0.086     0  00:01      0.68    1.00    1.00
  GQ164                CONDUIT     0.086     0  00:01      0.68    1.00    1.00
  GQ165                CONDUIT     0.092     0  00:07      0.74    1.08    1.00
  GQ166                CONDUIT     0.092     0  00:08      0.74    1.07    1.00
  GQ167                CONDUIT     0.091     0  00:08      0.74    1.06    1.00
  GQ168                CONDUIT     0.091     0  00:08      0.74    1.07    1.00
  GQ169                CONDUIT     0.086     0  00:00      0.68    1.00    1.00
  GQ170                CONDUIT     0.086     0  00:01      0.68    1.00    1.00
  GQ171                CONDUIT     0.086     0  00:01      0.68    1.00    1.00
  GQ172                CONDUIT     0.086     0  00:01      0.68    1.00    1.00
  GQ173                CONDUIT     0.092     0  00:06      0.74    1.08    1.00
  GQ174                CONDUIT     0.086     0  00:00      0.68    1.00    1.00
  GQ175                CONDUIT     0.086     0  00:01      0.68    1.00    1.00
  GQ176                CONDUIT     0.171     0  01:57      0.96    0.68    0.60
  GQ177                CONDUIT     0.255     0  02:36      0.95    1.01    0.91
  GQ178                CONDUIT     0.273     0  00:22      0.98    1.08    1.00
  GQ179                CONDUIT     0.272     0  00:21      0.98    1.08    1.00
  GQ180                CONDUIT     0.086     0  00:01      0.68    1.00    1.00
  GQ181                CONDUIT     0.092     0  00:07      0.74    1.07    1.00
  GQ182                CONDUIT     0.086     0  00:01      0.68    1.00    1.00
  GQ183                CONDUIT     0.086     0  00:01      0.68    1.00    1.00
  GQ184                CONDUIT     0.086     0  00:00      0.68    1.00    1.00
  GQ185                CONDUIT     0.092     0  00:06      0.74    1.07    1.00
  GQ186                CONDUIT     0.086     0  00:00      0.68    1.00    1.00
  GQ187                CONDUIT     0.086     0  00:01      0.68    1.00    1.00
  GQ188                CONDUIT     0.092     0  00:07      0.74    1.07    1.00
  GQ189                CONDUIT     0.086     0  00:01      0.68    1.00    1.00
  GQ190                CONDUIT     0.086     0  00:01      0.68    1.00    1.00
  GQ191                CONDUIT     0.092     0  00:06      0.74    1.07    1.00
  GQ192                CONDUIT     0.092     0  00:08      0.74    1.08    1.00
  GQ193                CONDUIT     0.092     0  00:08      0.74    1.08    1.00
  GQ194                CONDUIT     0.086     0  00:00      0.68    1.00    1.00
  GQ195                CONDUIT     0.086     0  00:01      0.68    1.00    1.00
  GQ196                CONDUIT     0.086     0  00:01      0.68    1.00    1.00
  
  
  *************************
  Conduit Surcharge Summary
  *************************
  
  ----------------------------------------------------------------------------
                                                           Hours        Hours 
                         --------- Hours Full --------   Above Full   Capacity
  Conduit                Both Ends  Upstream  Dnstream   Normal Flow   Limited
  ----------------------------------------------------------------------------
  GQ132                       4.00      4.00      4.00      3.99         4.00
  GQ134                       3.75      3.75      3.75      3.54         3.75
  GQ135                       3.83      3.83      3.83      0.07         3.83
  GQ136                       3.80      3.80      3.80      0.05         3.80
  GQ137                       3.77      3.77      3.77      0.06         3.77
  GQ138                       3.74      3.74      3.74      0.05         3.74
  GQ140                       4.00      4.00      4.00      3.99         4.00
  GQ141                       4.00      4.00      4.00      3.92         4.00
  GQ142                       3.98      3.98      3.98      3.89         3.98
  GQ143                       4.00      4.00      4.00      4.00         4.00
  GQ144                       4.00      4.00      4.00      3.98         4.00
  GQ145                       4.00      4.00      4.00      3.98         4.00
  GQ146                       4.00      4.00      4.00      3.98         4.00
  GQ147                       3.99      3.99      3.99      3.91         3.99
  GQ148                       4.00      4.00      4.00      3.99         4.00
  GQ149                       3.99      3.99      3.99      3.89         3.99
  GQ150                       4.00      4.00      4.00      3.99         4.00
  GQ151                       4.00      4.00      4.00      0.01         4.00
  GQ152                       4.00      4.00      4.00      3.98         4.00
  GQ153                       4.00      4.00      4.00      4.00         4.00
  GQ154                       4.00      4.00      4.00      4.00         4.00
  GQ155                       4.00      4.00      4.00      3.98         4.00
  GQ156                       4.00      4.00      4.00      3.92         4.00
  GQ158                       3.70      3.70      3.70      3.48         3.70
  GQ159                       3.77      3.77      3.77      0.07         3.77
  GQ160                       3.76      3.76      3.76      0.02         3.76
  GQ161                       4.00      4.00      4.00      3.99         4.00
  GQ162                       3.99      3.99      3.99      3.91         3.99
  GQ163                       4.00      4.00      4.00      3.98         4.00
  GQ164                       4.00      4.00      4.00      3.99         4.00
  GQ165                       3.99      3.99      3.99      3.89         3.99
  GQ166                       3.98      3.98      3.98      3.88         3.98
  GQ167                       3.99      3.99      3.99      3.88         3.99
  GQ168                       3.98      3.98      3.98      3.88         3.98
  GQ169                       4.00      4.00      4.00      4.00         4.00
  GQ170                       4.00      4.00      4.00      3.99         4.00
  GQ171                       4.00      4.00      4.00      3.98         4.00
  GQ172                       4.00      4.00      4.00      3.98         4.00
  GQ173                       4.00      4.00      4.00      3.92         4.00
  GQ174                       4.00      4.00      4.00      4.00         4.00
  GQ175                       4.00      4.00      4.00      0.01         4.00
  GQ177                       3.72      3.72      3.72      3.51         3.72
  GQ178                       3.80      3.80      3.80      0.08         3.80
  GQ179                       3.77      3.77      3.77      0.05         3.77
  GQ180                       4.00      4.00      4.00      3.98         4.00
  GQ181                       3.99      3.99      3.99      0.03         3.99
  GQ182                       4.00      4.00      4.00      3.99         4.00
  GQ183                       4.00      4.00      4.00      3.98         4.00
  GQ184                       4.00      4.00      4.00      4.00         4.00
  GQ185                       4.00      4.00      4.00      3.92         4.00
  GQ186                       4.00      4.00      4.00      4.00         4.00
  GQ187                       4.00      4.00      4.00      3.99         4.00
  GQ188                       3.99      3.99      3.99      3.91         3.99
  GQ189                       4.00      4.00      4.00      3.98         4.00
  GQ190                       4.00      4.00      4.00      3.98         4.00
  GQ191                       3.99      3.99      3.99      3.91         3.99
  GQ192                       3.98      3.98      3.98      3.89         3.98
  GQ193                       3.98      3.98      3.98      3.87         3.98
  GQ194                       4.00      4.00      4.00      4.00         4.00
  GQ195                       4.00      4.00      4.00      3.98         4.00
  GQ196                       4.00      4.00      4.00      3.98         4.00
  
  
  ***************************
  Link Pollutant Load Summary
  ***************************
  
  ----------------------------------
                                 BOD
  Link                            kg
  ----------------------------------
  GQ132                        0.000
  GQ133                        0.000
  GQ134                        0.000
  GQ135                        2.618
  GQ136                        1.951
  GQ137                        1.457
  GQ138                        1.088
  GQ139                        1.088
  GQ140                        0.000
  GQ141                        0.000
  GQ142                        0.000
  GQ143                        0.000
  GQ144                        0.000
  GQ145                        0.000
  GQ146                        0.000
  GQ147                        0.000
  GQ148                        0.000
  GQ149                        0.000
  GQ150                        3.399
  GQ151                        0.000
  GQ152                        0.000
  GQ153                        0.000
  GQ154                        0.000
  GQ155                        0.000
  GQ156                        0.000
  GQ157                        0.000
  GQ158                        0.000
  GQ159                        0.000
  GQ160                        0.000
  GQ161                        0.000
  GQ162                        0.000
  GQ163                        0.000
  GQ164                        0.000
  GQ165                        0.000
  GQ166                        0.000
  GQ167                        0.000
  GQ168                        0.000
  GQ169                        0.000
  GQ170                        0.000
  GQ171                        0.000
  GQ172                        0.000
  GQ173                        0.000
  GQ174                        0.000
  GQ175                        0.000
  GQ176                        0.000
  GQ177                        0.000
  GQ178                        0.000
  GQ179                        0.000
  GQ180                        0.000
  GQ181                        0.000
  GQ182                        0.000
  GQ183                        0.000
  GQ184                        0.000
  GQ185                        0.000
  GQ186                        0.000
  GQ187                        0.000
  GQ188                        0.000
  GQ189                        0.000
  GQ190                        0.000
  GQ191                        0.000
  GQ192                        0.000
  GQ193                        0.000
  GQ194                        0.000
  GQ195                        0.000
  GQ196                        0.000
  
  
  ************
  Node Results
  ************
  
  <<< Node 1 >>>
  --------------------------------------------------------------------------
                           Inflow  Flooding     Depth      Head       BOD
  Date        Time            CMS       CMS    meters    meters      MG/L
  --------------------------------------------------------------------------
  JUN-13-2016 00:01:00      0.003     0.000     0.248   200.748     0.000
  JUN-13-2016 00:02:00      0.014     0.000     0.297   200.797     0.000
  JUN-13-2016 00:03:00      0.026     0.000     0.331   200.831     0.000
  JUN-13-2016 00:04:00      0.038     0.000     0.357   200.857     0.000
  JUN-13-2016 00:05:00      0.048     0.000     0.377   200.877     0.000
  JUN-13-2016 00:06:00      0.055     0.000     0.391   200.891     0.000
  JUN-13-2016 00:07:00      0.061     0.000     0.400   200.900     0.000
  JUN-13-2016 00:08:00      0.064     0.000     0.405   200.905     0.000
  JUN-13-2016 00:09:00      0.066     0.000     0.409   200.909     0.000
  JUN-13-2016 00:10:00      0.071     0.000     0.416   200.916     0.000
  JUN-13-2016 00:11:00      0.080     0.000     0.425   200.925     0.000
  JUN-13-2016 00:12:00      0.096     0.000     0.439   200.939     0.000
  JUN-13-2016 00:13:00      0.126     0.000     0.463   200.963     0.000
  JUN-13-2016 00:14:00      0.190     0.000     0.491   200.991     0.000
  JUN-13-2016 00:15:00      0.189     0.000     0.507   201.007     0.000
  JUN-13-2016 00:16:00      0.229     0.000     0.486   200.986     0.000
  JUN-13-2016 00:17:00      0.326     0.000     0.565   201.065     0.000
  JUN-13-2016 00:18:00      0.411     0.000     0.638   201.138     0.000
  JUN-13-2016 00:19:00      0.477     0.000     0.711   201.211     0.000
  JUN-13-2016 00:20:00      0.492     0.000     0.800   201.300     0.000
  JUN-13-2016 00:21:00      0.509     0.000     0.800   201.300     0.001
  JUN-13-2016 00:22:00      0.520     0.000     0.800   201.300     0.004
  JUN-13-2016 00:23:00      0.525     0.000     0.800   201.300     0.010
  JUN-13-2016 00:24:00      0.505     0.000     0.800   201.300     0.020
  JUN-13-2016 00:25:00      0.505     0.000     0.800   201.300     0.034
  JUN-13-2016 00:26:00      0.505     0.000     0.800   201.300     0.053
  JUN-13-2016 00:27:00      0.505     0.000     0.800   201.300     0.077
  JUN-13-2016 00:28:00      0.505     0.000     0.800   201.300     0.106
  JUN-13-2016 00:29:00      0.505     0.000     0.800   201.300     0.140
  JUN-13-2016 00:30:00      0.505     0.000     0.800   201.300     0.178
  JUN-13-2016 00:31:00      0.505     0.000     0.800   201.300     0.220
  JUN-13-2016 00:32:00      0.505     0.000     0.800   201.300     0.265
  JUN-13-2016 00:33:00      0.505     0.000     0.800   201.300     0.312
  JUN-13-2016 00:34:00      0.505     0.000     0.800   201.300     0.360
  JUN-13-2016 00:35:00      0.505     0.000     0.800   201.300     0.409
  JUN-13-2016 00:36:00      0.505     0.000     0.800   201.300     0.457
  JUN-13-2016 00:37:00      0.505     0.000     0.800   201.300     0.505
  JUN-13-2016 00:38:00      0.505     0.000     0.800   201.300     0.551
  JUN-13-2016 00:39:00      0.505     0.000     0.800   201.300     0.595
  JUN-13-2016 00:40:00      0.505     0.000     0.800   201.300     0.636
  JUN-13-2016 00:41:00      0.505     0.000     0.800   201.300     0.675
  JUN-13-2016 00:42:00      0.505     0.000     0.800   201.300     0.710
  JUN-13-2016 00:43:00      0.505     0.000     0.800   201.300     0.742
  JUN-13-2016 00:44:00      0.505     0.000     0.800   201.300     0.770
  JUN-13-2016 00:45:00      0.505     0.000     0.800   201.300     0.794
  JUN-13-2016 00:46:00      0.505     0.000     0.800   201.300     0.814
  JUN-13-2016 00:47:00      0.505     0.000     0.800   201.300     0.830
  JUN-13-2016 00:48:00      0.505     0.000     0.800   201.300     0.842
  JUN-13-2016 00:49:00      0.505     0.000     0.800   201.300     0.851
  JUN-13-2016 00:50:00      0.505     0.000     0.800   201.300     0.856
  JUN-13-2016 00:51:00      0.505     0.000     0.800   201.300     0.858
  JUN-13-2016 00:52:00      0.505     0.000     0.800   201.300     0.857
  JUN-13-2016 00:53:00      0.505     0.000     0.800   201.300     0.852
  JUN-13-2016 00:54:00      0.505     0.000     0.800   201.300     0.845
  JUN-13-2016 00:55:00      0.505     0.000     0.800   201.300     0.835
  JUN-13-2016 00:56:00      0.505     0.000     0.800   201.300     0.823
  JUN-13-2016 00:57:00      0.505     0.000     0.800   201.300     0.808
  JUN-13-2016 00:58:00      0.505     0.000     0.800   201.300     0.792
  JUN-13-2016 00:59:00      0.505     0.000     0.800   201.300     0.774
  JUN-13-2016 01:00:00      0.505     0.000     0.800   201.300     0.755
  JUN-13-2016 01:01:00      0.505     0.000     0.800   201.300     0.735
  JUN-13-2016 01:02:00      0.505     0.000     0.800   201.300     0.713
  JUN-13-2016 01:03:00      0.505     0.000     0.800   201.300     0.691
  JUN-13-2016 01:04:00      0.505     0.000     0.800   201.300     0.668
  JUN-13-2016 01:05:00      0.505     0.000     0.800   201.300     0.645
  JUN-13-2016 01:06:00      0.505     0.000     0.800   201.300     0.621
  JUN-13-2016 01:07:00      0.505     0.000     0.800   201.300     0.597
  JUN-13-2016 01:08:00      0.505     0.000     0.800   201.300     0.573
  JUN-13-2016 01:09:00      0.505     0.000     0.800   201.300     0.549
  JUN-13-2016 01:10:00      0.505     0.000     0.800   201.300     0.526
  JUN-13-2016 01:11:00      0.505     0.000     0.800   201.300     0.502
  JUN-13-2016 01:12:00      0.505     0.000     0.800   201.300     0.479
  JUN-13-2016 01:13:00      0.505     0.000     0.800   201.300     0.457
  JUN-13-2016 01:14:00      0.505     0.000     0.800   201.300     0.435
  JUN-13-2016 01:15:00      0.505     0.000     0.800   201.300     0.413
  JUN-13-2016 01:16:00      0.505     0.000     0.800   201.300     0.392
  JUN-13-2016 01:17:00      0.505     0.000     0.800   201.300     0.372
  JUN-13-2016 01:18:00      0.505     0.000     0.800   201.300     0.352
  JUN-13-2016 01:19:00      0.505     0.000     0.800   201.300     0.333
  JUN-13-2016 01:20:00      0.505     0.000     0.800   201.300     0.315
  JUN-13-2016 01:21:00      0.505     0.000     0.800   201.300     0.297
  JUN-13-2016 01:22:00      0.505     0.000     0.800   201.300     0.280
  JUN-13-2016 01:23:00      0.505     0.000     0.800   201.300     0.264
  JUN-13-2016 01:24:00      0.505     0.000     0.800   201.300     0.249
  JUN-13-2016 01:25:00      0.505     0.000     0.800   201.300     0.234
  JUN-13-2016 01:26:00      0.505     0.000     0.800   201.300     0.220
  JUN-13-2016 01:27:00      0.505     0.000     0.800   201.300     0.206
  JUN-13-2016 01:28:00      0.505     0.000     0.800   201.300     0.194
  JUN-13-2016 01:29:00      0.505     0.000     0.800   201.300     0.182
  JUN-13-2016 01:30:00      0.505     0.000     0.800   201.300     0.170
  JUN-13-2016 01:31:00      0.505     0.000     0.800   201.300     0.159
  JUN-13-2016 01:32:00      0.505     0.000     0.800   201.300     0.149
  JUN-13-2016 01:33:00      0.505     0.000     0.800   201.300     0.139
  JUN-13-2016 01:34:00      0.505     0.000     0.800   201.300     0.130
  JUN-13-2016 01:35:00      0.505     0.000     0.800   201.300     0.121
  JUN-13-2016 01:36:00      0.505     0.000     0.800   201.300     0.113
  JUN-13-2016 01:37:00      0.505     0.000     0.800   201.300     0.106
  JUN-13-2016 01:38:00      0.505     0.000     0.800   201.300     0.098
  JUN-13-2016 01:39:00      0.505     0.000     0.800   201.300     0.092
  JUN-13-2016 01:40:00      0.505     0.000     0.800   201.300     0.085
  JUN-13-2016 01:41:00      0.505     0.000     0.800   201.300     0.079
  JUN-13-2016 01:42:00      0.505     0.000     0.800   201.300     0.074
  JUN-13-2016 01:43:00      0.505     0.000     0.800   201.300     0.068
  JUN-13-2016 01:44:00      0.505     0.000     0.800   201.300     0.064
  JUN-13-2016 01:45:00      0.505     0.000     0.800   201.300     0.059
  JUN-13-2016 01:46:00      0.505     0.000     0.800   201.300     0.055
  JUN-13-2016 01:47:00      0.505     0.000     0.800   201.300     0.051
  JUN-13-2016 01:48:00      0.505     0.000     0.800   201.300     0.047
  JUN-13-2016 01:49:00      0.505     0.000     0.800   201.300     0.044
  JUN-13-2016 01:50:00      0.505     0.000     0.800   201.300     0.040
  JUN-13-2016 01:51:00      0.505     0.000     0.800   201.300     0.037
  JUN-13-2016 01:52:00      0.505     0.000     0.800   201.300     0.034
  JUN-13-2016 01:53:00      0.505     0.000     0.800   201.300     0.032
  JUN-13-2016 01:54:00      0.505     0.000     0.800   201.300     0.029
  JUN-13-2016 01:55:00      0.505     0.000     0.800   201.300     0.027
  JUN-13-2016 01:56:00      0.505     0.000     0.800   201.300     0.025
  JUN-13-2016 01:57:00      0.505     0.000     0.800   201.300     0.023
  JUN-13-2016 01:58:00      0.505     0.000     0.800   201.300     0.021
  JUN-13-2016 01:59:00      0.505     0.000     0.800   201.300     0.020
  JUN-13-2016 02:00:00      0.505     0.000     0.800   201.300     0.018
  JUN-13-2016 02:01:00      0.505     0.000     0.800   201.300     0.017
  JUN-13-2016 02:02:00      0.505     0.000     0.800   201.300     0.015
  JUN-13-2016 02:03:00      0.505     0.000     0.800   201.300     0.014
  JUN-13-2016 02:04:00      0.505     0.000     0.800   201.300     0.013
  JUN-13-2016 02:05:00      0.505     0.000     0.800   201.300     0.012
  JUN-13-2016 02:06:00      0.505     0.000     0.800   201.300     0.011
  JUN-13-2016 02:07:00      0.505     0.000     0.800   201.300     0.010
  JUN-13-2016 02:08:00      0.505     0.000     0.800   201.300     0.009
  JUN-13-2016 02:09:00      0.505     0.000     0.800   201.300     0.009
  JUN-13-2016 02:10:00      0.505     0.000     0.800   201.300     0.008
  JUN-13-2016 02:11:00      0.505     0.000     0.800   201.300     0.007
  JUN-13-2016 02:12:00      0.505     0.000     0.800   201.300     0.007
  JUN-13-2016 02:13:00      0.505     0.000     0.800   201.300     0.006
  JUN-13-2016 02:14:00      0.505     0.000     0.800   201.300     0.006
  JUN-13-2016 02:15:00      0.505     0.000     0.800   201.300     0.005
  JUN-13-2016 02:16:00      0.505     0.000     0.800   201.300     0.005
  JUN-13-2016 02:17:00      0.505     0.000     0.800   201.300     0.004
  JUN-13-2016 02:18:00      0.505     0.000     0.800   201.300     0.004
  JUN-13-2016 02:19:00      0.505     0.000     0.800   201.300     0.004
  JUN-13-2016 02:20:00      0.505     0.000     0.800   201.300     0.003
  JUN-13-2016 02:21:00      0.505     0.000     0.800   201.300     0.003
  JUN-13-2016 02:22:00      0.505     0.000     0.800   201.300     0.003
  JUN-13-2016 02:23:00      0.505     0.000     0.800   201.300     0.003
  JUN-13-2016 02:24:00      0.505     0.000     0.800   201.300     0.002
  JUN-13-2016 02:25:00      0.505     0.000     0.800   201.300     0.002
  JUN-13-2016 02:26:00      0.505     0.000     0.800   201.300     0.002
  JUN-13-2016 02:27:00      0.505     0.000     0.800   201.300     0.002
  JUN-13-2016 02:28:00      0.505     0.000     0.800   201.300     0.002
  JUN-13-2016 02:29:00      0.505     0.000     0.800   201.300     0.002
  JUN-13-2016 02:30:00      0.505     0.000     0.800   201.300     0.001
  JUN-13-2016 02:31:00      0.505     0.000     0.800   201.300     0.001
  JUN-13-2016 02:32:00      0.505     0.000     0.800   201.300     0.001
  JUN-13-2016 02:33:00      0.505     0.000     0.800   201.300     0.001
  JUN-13-2016 02:34:00      0.505     0.000     0.800   201.300     0.001
  JUN-13-2016 02:35:00      0.505     0.000     0.800   201.300     0.001
  JUN-13-2016 02:36:00      0.505     0.000     0.800   201.300     0.001
  JUN-13-2016 02:37:00      0.505     0.000     0.800   201.300     0.001
  JUN-13-2016 02:38:00      0.505     0.000     0.800   201.300     0.001
  JUN-13-2016 02:39:00      0.505     0.000     0.800   201.300     0.001
  JUN-13-2016 02:40:00      0.505     0.000     0.800   201.300     0.001
  JUN-13-2016 02:41:00      0.505     0.000     0.800   201.300     0.001
  JUN-13-2016 02:42:00      0.505     0.000     0.800   201.300     0.000
  JUN-13-2016 02:43:00      0.505     0.000     0.800   201.300     0.000
  JUN-13-2016 02:44:00      0.505     0.000     0.800   201.300     0.000
  JUN-13-2016 02:45:00      0.505     0.000     0.800   201.300     0.000
  JUN-13-2016 02:46:00      0.505     0.000     0.800   201.300     0.000
  JUN-13-2016 02:47:00      0.505     0.000     0.800   201.300     0.000
  JUN-13-2016 02:48:00      0.505     0.000     0.800   201.300     0.000
  JUN-13-2016 02:49:00      0.505     0.000     0.800   201.300     0.000
  JUN-13-2016 02:50:00      0.505     0.000     0.800   201.300     0.000
  JUN-13-2016 02:51:00      0.505     0.000     0.800   201.300     0.000
  JUN-13-2016 02:52:00      0.505     0.000     0.800   201.300     0.000
  JUN-13-2016 02:53:00      0.505     0.000     0.800   201.300     0.000
  JUN-13-2016 02:54:00      0.505     0.000     0.800   201.300     0.000
  JUN-13-2016 02:55:00      0.505     0.000     0.800   201.300     0.000
  JUN-13-2016 02:56:00      0.505     0.000     0.800   201.300     0.000
  JUN-13-2016 02:57:00      0.505     0.000     0.800   201.300     0.000
  JUN-13-2016 02:58:00      0.505     0.000     0.800   201.300     0.000
  JUN-13-2016 02:59:00      0.505     0.000     0.800   201.300     0.000
  JUN-13-2016 03:00:00      0.505     0.000     0.800   201.300     0.000
  JUN-13-2016 03:01:00      0.505     0.000     0.800   201.300     0.000
  JUN-13-2016 03:02:00      0.505     0.000     0.800   201.300     0.000
  JUN-13-2016 03:03:00      0.505     0.000     0.800   201.300     0.000
  JUN-13-2016 03:04:00      0.505     0.000     0.800   201.300     0.000
  JUN-13-2016 03:05:00      0.505     0.000     0.800   201.300     0.000
  JUN-13-2016 03:06:00      0.505     0.000     0.800   201.300     0.000
  JUN-13-2016 03:07:00      0.505     0.000     0.800   201.300     0.000
  JUN-13-2016 03:08:00      0.505     0.000     0.800   201.300     0.000
  JUN-13-2016 03:09:00      0.505     0.000     0.800   201.300     0.000
  JUN-13-2016 03:10:00      0.505     0.000     0.800   201.300     0.000
  JUN-13-2016 03:11:00      0.505     0.000     0.800   201.300     0.000
  JUN-13-2016 03:12:00      0.505     0.000     0.800   201.300     0.000
  JUN-13-2016 03:13:00      0.505     0.000     0.800   201.300     0.000
  JUN-13-2016 03:14:00      0.505     0.000     0.800   201.300     0.000
  JUN-13-2016 03:15:00      0.505     0.000     0.800   201.300     0.000
  JUN-13-2016 03:16:00      0.505     0.000     0.800   201.300     0.000
  JUN-13-2016 03:17:00      0.505     0.000     0.800   201.300     0.000
  JUN-13-2016 03:18:00      0.505     0.000     0.800   201.300     0.000
  JUN-13-2016 03:19:00      0.505     0.000     0.800   201.300     0.000
  JUN-13-2016 03:20:00      0.505     0.000     0.800   201.300     0.000
  JUN-13-2016 03:21:00      0.505     0.000     0.800   201.300     0.000
  JUN-13-2016 03:22:00      0.505     0.000     0.800   201.300     0.000
  JUN-13-2016 03:23:00      0.505     0.000     0.800   201.300     0.000
  JUN-13-2016 03:24:00      0.505     0.000     0.800   201.300     0.000
  JUN-13-2016 03:25:00      0.505     0.000     0.800   201.300     0.000
  JUN-13-2016 03:26:00      0.505     0.000     0.800   201.300     0.000
  JUN-13-2016 03:27:00      0.505     0.000     0.800   201.300     0.000
  JUN-13-2016 03:28:00      0.505     0.000     0.800   201.300     0.000
  JUN-13-2016 03:29:00      0.505     0.000     0.800   201.300     0.000
  JUN-13-2016 03:30:00      0.505     0.000     0.800   201.300     0.000
  JUN-13-2016 03:31:00      0.505     0.000     0.800   201.300     0.000
  JUN-13-2016 03:32:00      0.505     0.000     0.800   201.300     0.000
  JUN-13-2016 03:33:00      0.505     0.000     0.800   201.300     0.000
  JUN-13-2016 03:34:00      0.505     0.000     0.800   201.300     0.000
  JUN-13-2016 03:35:00      0.505     0.000     0.800   201.300     0.000
  JUN-13-2016 03:36:00      0.505     0.000     0.800   201.300     0.000
  JUN-13-2016 03:37:00      0.505     0.000     0.800   201.300     0.000
  JUN-13-2016 03:38:00      0.505     0.000     0.800   201.300     0.000
  JUN-13-2016 03:39:00      0.505     0.000     0.800   201.300     0.000
  JUN-13-2016 03:40:00      0.505     0.000     0.800   201.300     0.000
  JUN-13-2016 03:41:00      0.505     0.000     0.800   201.300     0.000
  JUN-13-2016 03:42:00      0.505     0.000     0.800   201.300     0.000
  JUN-13-2016 03:43:00      0.505     0.000     0.800   201.300     0.000
  JUN-13-2016 03:44:00      0.505     0.000     0.800   201.300     0.000
  JUN-13-2016 03:45:00      0.505     0.000     0.800   201.300     0.000
  JUN-13-2016 03:46:00      0.505     0.000     0.800   201.300     0.000
  JUN-13-2016 03:47:00      0.505     0.000     0.800   201.300     0.000
  JUN-13-2016 03:48:00      0.505     0.000     0.800   201.300     0.000
  JUN-13-2016 03:49:00      0.505     0.000     0.800   201.300     0.000
  JUN-13-2016 03:50:00      0.505     0.000     0.800   201.300     0.000
  JUN-13-2016 03:51:00      0.505     0.000     0.800   201.300     0.000
  JUN-13-2016 03:52:00      0.505     0.000     0.800   201.300     0.000
  JUN-13-2016 03:53:00      0.505     0.000     0.800   201.300     0.000
  JUN-13-2016 03:54:00      0.505     0.000     0.800   201.300     0.000
  JUN-13-2016 03:55:00      0.505     0.000     0.800   201.300     0.000
  JUN-13-2016 03:56:00      0.505     0.000     0.800   201.300     0.000
  JUN-13-2016 03:57:00      0.505     0.000     0.800   201.300     0.000
  JUN-13-2016 03:58:00      0.505     0.000     0.800   201.300     0.000
  JUN-13-2016 03:59:00      0.505     0.000     0.800   201.300     0.000
  
  
  <<< Node 3 >>>
  --------------------------------------------------------------------------
                           Inflow  Flooding     Depth      Head       BOD
  Date        Time            CMS       CMS    meters    meters      MG/L
  --------------------------------------------------------------------------
  JUN-13-2016 00:01:00      0.086     0.000     0.600   201.700     0.000
  JUN-13-2016 00:02:00      0.086     0.000     0.600   201.700     0.000
  JUN-13-2016 00:03:00      0.086     0.000     0.600   201.700     0.000
  JUN-13-2016 00:04:00      0.086     0.000     0.600   201.700     0.000
  JUN-13-2016 00:05:00      0.086     0.000     0.600   201.700     0.000
  JUN-13-2016 00:06:00      0.087     0.000     0.600   201.700     0.000
  JUN-13-2016 00:07:00      0.090     0.000     0.600   201.700     0.000
  JUN-13-2016 00:08:00      0.099     0.000     0.600   201.700     0.000
  JUN-13-2016 00:09:00      0.114     0.000     0.600   201.700     0.000
  JUN-13-2016 00:10:00      0.131     0.000     0.600   201.700     0.000
  JUN-13-2016 00:11:00      0.150     0.000     0.600   201.700     0.000
  JUN-13-2016 00:12:00      0.175     0.000     0.600   201.700     0.000
  JUN-13-2016 00:13:00      0.193     0.000     0.600   201.700     0.000
  JUN-13-2016 00:14:00      0.202     0.000     0.600   201.700     0.000
  JUN-13-2016 00:15:00      0.218     0.000     0.600   201.700     0.000
  JUN-13-2016 00:16:00      0.257     0.002     4.000   205.100     0.000
  JUN-13-2016 00:17:00      0.289     0.029     4.000   205.100     0.000
  JUN-13-2016 00:18:00      0.315     0.056     4.000   205.100     0.000
  JUN-13-2016 00:19:00      0.334     0.077     4.000   205.100     0.001
  JUN-13-2016 00:20:00      0.349     0.093     4.000   205.100     0.010
  JUN-13-2016 00:21:00      0.356     0.102     4.000   205.100     0.037
  JUN-13-2016 00:22:00      0.358     0.106     4.000   205.100     0.086
  JUN-13-2016 00:23:00      0.338     0.088     4.000   205.100     0.154
  JUN-13-2016 00:24:00      0.338     0.086     4.000   205.100     0.243
  JUN-13-2016 00:25:00      0.338     0.086     4.000   205.100     0.350
  JUN-13-2016 00:26:00      0.338     0.086     4.000   205.100     0.469
  JUN-13-2016 00:27:00      0.338     0.086     4.000   205.100     0.599
  JUN-13-2016 00:28:00      0.338     0.086     4.000   205.100     0.735
  JUN-13-2016 00:29:00      0.338     0.086     4.000   205.100     0.873
  JUN-13-2016 00:30:00      0.338     0.086     4.000   205.100     1.010
  JUN-13-2016 00:31:00      0.338     0.086     4.000   205.100     1.143
  JUN-13-2016 00:32:00      0.338     0.086     4.000   205.100     1.269
  JUN-13-2016 00:33:00      0.338     0.086     4.000   205.100     1.387
  JUN-13-2016 00:34:00      0.338     0.086     4.000   205.100     1.496
  JUN-13-2016 00:35:00      0.338     0.086     4.000   205.100     1.593
  JUN-13-2016 00:36:00      0.338     0.086     4.000   205.100     1.679
  JUN-13-2016 00:37:00      0.338     0.086     4.000   205.100     1.752
  JUN-13-2016 00:38:00      0.338     0.086     4.000   205.100     1.813
  JUN-13-2016 00:39:00      0.338     0.086     4.000   205.100     1.862
  JUN-13-2016 00:40:00      0.338     0.086     4.000   205.100     1.899
  JUN-13-2016 00:41:00      0.338     0.086     4.000   205.100     1.924
  JUN-13-2016 00:42:00      0.338     0.086     4.000   205.100     1.938
  JUN-13-2016 00:43:00      0.338     0.086     4.000   205.100     1.943
  JUN-13-2016 00:44:00      0.338     0.086     4.000   205.100     1.937
  JUN-13-2016 00:45:00      0.338     0.086     4.000   205.100     1.924
  JUN-13-2016 00:46:00      0.338     0.086     4.000   205.100     1.902
  JUN-13-2016 00:47:00      0.338     0.086     4.000   205.100     1.873
  JUN-13-2016 00:48:00      0.338     0.086     4.000   205.100     1.838
  JUN-13-2016 00:49:00      0.338     0.086     4.000   205.100     1.798
  JUN-13-2016 00:50:00      0.338     0.086     4.000   205.100     1.753
  JUN-13-2016 00:51:00      0.338     0.086     4.000   205.100     1.705
  JUN-13-2016 00:52:00      0.338     0.086     4.000   205.100     1.653
  JUN-13-2016 00:53:00      0.338     0.086     4.000   205.100     1.598
  JUN-13-2016 00:54:00      0.338     0.086     4.000   205.100     1.542
  JUN-13-2016 00:55:00      0.338     0.086     4.000   205.100     1.484
  JUN-13-2016 00:56:00      0.338     0.086     4.000   205.100     1.425
  JUN-13-2016 00:57:00      0.338     0.086     4.000   205.100     1.366
  JUN-13-2016 00:58:00      0.338     0.086     4.000   205.100     1.306
  JUN-13-2016 00:59:00      0.338     0.086     4.000   205.100     1.247
  JUN-13-2016 01:00:00      0.338     0.086     4.000   205.100     1.189
  JUN-13-2016 01:01:00      0.338     0.086     4.000   205.100     1.131
  JUN-13-2016 01:02:00      0.338     0.086     4.000   205.100     1.074
  JUN-13-2016 01:03:00      0.338     0.086     4.000   205.100     1.019
  JUN-13-2016 01:04:00      0.338     0.086     4.000   205.100     0.965
  JUN-13-2016 01:05:00      0.338     0.086     4.000   205.100     0.913
  JUN-13-2016 01:06:00      0.338     0.086     4.000   205.100     0.862
  JUN-13-2016 01:07:00      0.338     0.086     4.000   205.100     0.813
  JUN-13-2016 01:08:00      0.338     0.086     4.000   205.100     0.766
  JUN-13-2016 01:09:00      0.338     0.086     4.000   205.100     0.721
  JUN-13-2016 01:10:00      0.338     0.086     4.000   205.100     0.678
  JUN-13-2016 01:11:00      0.338     0.086     4.000   205.100     0.637
  JUN-13-2016 01:12:00      0.338     0.086     4.000   205.100     0.597
  JUN-13-2016 01:13:00      0.338     0.086     4.000   205.100     0.560
  JUN-13-2016 01:14:00      0.338     0.086     4.000   205.100     0.524
  JUN-13-2016 01:15:00      0.338     0.086     4.000   205.100     0.490
  JUN-13-2016 01:16:00      0.338     0.086     4.000   205.100     0.458
  JUN-13-2016 01:17:00      0.338     0.086     4.000   205.100     0.428
  JUN-13-2016 01:18:00      0.338     0.086     4.000   205.100     0.399
  JUN-13-2016 01:19:00      0.338     0.086     4.000   205.100     0.372
  JUN-13-2016 01:20:00      0.338     0.086     4.000   205.100     0.347
  JUN-13-2016 01:21:00      0.338     0.086     4.000   205.100     0.323
  JUN-13-2016 01:22:00      0.338     0.086     4.000   205.100     0.300
  JUN-13-2016 01:23:00      0.338     0.086     4.000   205.100     0.279
  JUN-13-2016 01:24:00      0.338     0.086     4.000   205.100     0.259
  JUN-13-2016 01:25:00      0.338     0.086     4.000   205.100     0.241
  JUN-13-2016 01:26:00      0.338     0.086     4.000   205.100     0.223
  JUN-13-2016 01:27:00      0.338     0.086     4.000   205.100     0.207
  JUN-13-2016 01:28:00      0.338     0.086     4.000   205.100     0.192
  JUN-13-2016 01:29:00      0.338     0.086     4.000   205.100     0.178
  JUN-13-2016 01:30:00      0.338     0.086     4.000   205.100     0.164
  JUN-13-2016 01:31:00      0.338     0.086     4.000   205.100     0.152
  JUN-13-2016 01:32:00      0.338     0.086     4.000   205.100     0.141
  JUN-13-2016 01:33:00      0.338     0.086     4.000   205.100     0.130
  JUN-13-2016 01:34:00      0.338     0.086     4.000   205.100     0.120
  JUN-13-2016 01:35:00      0.338     0.086     4.000   205.100     0.111
  JUN-13-2016 01:36:00      0.338     0.086     4.000   205.100     0.102
  JUN-13-2016 01:37:00      0.338     0.086     4.000   205.100     0.094
  JUN-13-2016 01:38:00      0.338     0.086     4.000   205.100     0.087
  JUN-13-2016 01:39:00      0.338     0.086     4.000   205.100     0.080
  JUN-13-2016 01:40:00      0.338     0.086     4.000   205.100     0.074
  JUN-13-2016 01:41:00      0.338     0.086     4.000   205.100     0.068
  JUN-13-2016 01:42:00      0.338     0.086     4.000   205.100     0.063
  JUN-13-2016 01:43:00      0.338     0.086     4.000   205.100     0.058
  JUN-13-2016 01:44:00      0.338     0.086     4.000   205.100     0.053
  JUN-13-2016 01:45:00      0.338     0.086     4.000   205.100     0.049
  JUN-13-2016 01:46:00      0.338     0.086     4.000   205.100     0.045
  JUN-13-2016 01:47:00      0.338     0.086     4.000   205.100     0.041
  JUN-13-2016 01:48:00      0.338     0.086     4.000   205.100     0.038
  JUN-13-2016 01:49:00      0.338     0.086     4.000   205.100     0.035
  JUN-13-2016 01:50:00      0.338     0.086     4.000   205.100     0.032
  JUN-13-2016 01:51:00      0.338     0.086     4.000   205.100     0.029
  JUN-13-2016 01:52:00      0.338     0.086     4.000   205.100     0.027
  JUN-13-2016 01:53:00      0.338     0.086     4.000   205.100     0.025
  JUN-13-2016 01:54:00      0.338     0.086     4.000   205.100     0.023
  JUN-13-2016 01:55:00      0.338     0.086     4.000   205.100     0.021
  JUN-13-2016 01:56:00      0.338     0.086     4.000   205.100     0.019
  JUN-13-2016 01:57:00      0.338     0.086     4.000   205.100     0.017
  JUN-13-2016 01:58:00      0.338     0.086     4.000   205.100     0.016
  JUN-13-2016 01:59:00      0.338     0.086     4.000   205.100     0.015
  JUN-13-2016 02:00:00      0.338     0.086     4.000   205.100     0.013
  JUN-13-2016 02:01:00      0.338     0.086     4.000   205.100     0.012
  JUN-13-2016 02:02:00      0.338     0.086     4.000   205.100     0.011
  JUN-13-2016 02:03:00      0.338     0.086     4.000   205.100     0.010
  JUN-13-2016 02:04:00      0.338     0.086     4.000   205.100     0.009
  JUN-13-2016 02:05:00      0.338     0.086     4.000   205.100     0.009
  JUN-13-2016 02:06:00      0.338     0.086     4.000   205.100     0.008
  JUN-13-2016 02:07:00      0.338     0.086     4.000   205.100     0.007
  JUN-13-2016 02:08:00      0.338     0.086     4.000   205.100     0.007
  JUN-13-2016 02:09:00      0.338     0.086     4.000   205.100     0.006
  JUN-13-2016 02:10:00      0.338     0.086     4.000   205.100     0.005
  JUN-13-2016 02:11:00      0.338     0.086     4.000   205.100     0.005
  JUN-13-2016 02:12:00      0.338     0.086     4.000   205.100     0.005
  JUN-13-2016 02:13:00      0.338     0.086     4.000   205.100     0.004
  JUN-13-2016 02:14:00      0.338     0.086     4.000   205.100     0.004
  JUN-13-2016 02:15:00      0.338     0.086     4.000   205.100     0.003
  JUN-13-2016 02:16:00      0.338     0.086     4.000   205.100     0.003
  JUN-13-2016 02:17:00      0.338     0.086     4.000   205.100     0.003
  JUN-13-2016 02:18:00      0.338     0.086     4.000   205.100     0.003
  JUN-13-2016 02:19:00      0.338     0.086     4.000   205.100     0.002
  JUN-13-2016 02:20:00      0.338     0.086     4.000   205.100     0.002
  JUN-13-2016 02:21:00      0.338     0.086     4.000   205.100     0.002
  JUN-13-2016 02:22:00      0.338     0.086     4.000   205.100     0.002
  JUN-13-2016 02:23:00      0.338     0.086     4.000   205.100     0.002
  JUN-13-2016 02:24:00      0.338     0.086     4.000   205.100     0.002
  JUN-13-2016 02:25:00      0.338     0.086     4.000   205.100     0.001
  JUN-13-2016 02:26:00      0.338     0.086     4.000   205.100     0.001
  JUN-13-2016 02:27:00      0.338     0.086     4.000   205.100     0.001
  JUN-13-2016 02:28:00      0.338     0.086     4.000   205.100     0.001
  JUN-13-2016 02:29:00      0.338     0.086     4.000   205.100     0.001
  JUN-13-2016 02:30:00      0.338     0.086     4.000   205.100     0.001
  JUN-13-2016 02:31:00      0.338     0.086     4.000   205.100     0.001
  JUN-13-2016 02:32:00      0.338     0.086     4.000   205.100     0.001
  JUN-13-2016 02:33:00      0.338     0.086     4.000   205.100     0.001
  JUN-13-2016 02:34:00      0.338     0.086     4.000   205.100     0.001
  JUN-13-2016 02:35:00      0.338     0.086     4.000   205.100     0.001
  JUN-13-2016 02:36:00      0.338     0.086     4.000   205.100     0.000
  JUN-13-2016 02:37:00      0.338     0.086     4.000   205.100     0.000
  JUN-13-2016 02:38:00      0.338     0.086     4.000   205.100     0.000
  JUN-13-2016 02:39:00      0.338     0.086     4.000   205.100     0.000
  JUN-13-2016 02:40:00      0.338     0.086     4.000   205.100     0.000
  JUN-13-2016 02:41:00      0.338     0.086     4.000   205.100     0.000
  JUN-13-2016 02:42:00      0.338     0.086     4.000   205.100     0.000
  JUN-13-2016 02:43:00      0.338     0.086     4.000   205.100     0.000
  JUN-13-2016 02:44:00      0.338     0.086     4.000   205.100     0.000
  JUN-13-2016 02:45:00      0.338     0.086     4.000   205.100     0.000
  JUN-13-2016 02:46:00      0.338     0.086     4.000   205.100     0.000
  JUN-13-2016 02:47:00      0.338     0.086     4.000   205.100     0.000
  JUN-13-2016 02:48:00      0.338     0.086     4.000   205.100     0.000
  JUN-13-2016 02:49:00      0.338     0.086     4.000   205.100     0.000
  JUN-13-2016 02:50:00      0.338     0.086     4.000   205.100     0.000
  JUN-13-2016 02:51:00      0.338     0.086     4.000   205.100     0.000
  JUN-13-2016 02:52:00      0.338     0.086     4.000   205.100     0.000
  JUN-13-2016 02:53:00      0.338     0.086     4.000   205.100     0.000
  JUN-13-2016 02:54:00      0.338     0.086     4.000   205.100     0.000
  JUN-13-2016 02:55:00      0.338     0.086     4.000   205.100     0.000
  JUN-13-2016 02:56:00      0.338     0.086     4.000   205.100     0.000
  JUN-13-2016 02:57:00      0.338     0.086     4.000   205.100     0.000
  JUN-13-2016 02:58:00      0.338     0.086     4.000   205.100     0.000
  JUN-13-2016 02:59:00      0.338     0.086     4.000   205.100     0.000
  JUN-13-2016 03:00:00      0.338     0.086     4.000   205.100     0.000
  JUN-13-2016 03:01:00      0.338     0.086     4.000   205.100     0.000
  JUN-13-2016 03:02:00      0.338     0.086     4.000   205.100     0.000
  JUN-13-2016 03:03:00      0.338     0.086     4.000   205.100     0.000
  JUN-13-2016 03:04:00      0.338     0.086     4.000   205.100     0.000
  JUN-13-2016 03:05:00      0.338     0.086     4.000   205.100     0.000
  JUN-13-2016 03:06:00      0.338     0.086     4.000   205.100     0.000
  JUN-13-2016 03:07:00      0.338     0.086     4.000   205.100     0.000
  JUN-13-2016 03:08:00      0.338     0.086     4.000   205.100     0.000
  JUN-13-2016 03:09:00      0.338     0.086     4.000   205.100     0.000
  JUN-13-2016 03:10:00      0.338     0.086     4.000   205.100     0.000
  JUN-13-2016 03:11:00      0.338     0.086     4.000   205.100     0.000
  JUN-13-2016 03:12:00      0.338     0.086     4.000   205.100     0.000
  JUN-13-2016 03:13:00      0.338     0.086     4.000   205.100     0.000
  JUN-13-2016 03:14:00      0.338     0.086     4.000   205.100     0.000
  JUN-13-2016 03:15:00      0.338     0.086     4.000   205.100     0.000
  JUN-13-2016 03:16:00      0.338     0.086     4.000   205.100     0.000
  JUN-13-2016 03:17:00      0.338     0.086     4.000   205.100     0.000
  JUN-13-2016 03:18:00      0.338     0.086     4.000   205.100     0.000
  JUN-13-2016 03:19:00      0.338     0.086     4.000   205.100     0.000
  JUN-13-2016 03:20:00      0.338     0.086     4.000   205.100     0.000
  JUN-13-2016 03:21:00      0.338     0.086     4.000   205.100     0.000
  JUN-13-2016 03:22:00      0.338     0.086     4.000   205.100     0.000
  JUN-13-2016 03:23:00      0.338     0.086     4.000   205.100     0.000
  JUN-13-2016 03:24:00      0.338     0.086     4.000   205.100     0.000
  JUN-13-2016 03:25:00      0.338     0.086     4.000   205.100     0.000
  JUN-13-2016 03:26:00      0.338     0.086     4.000   205.100     0.000
  JUN-13-2016 03:27:00      0.338     0.086     4.000   205.100     0.000
  JUN-13-2016 03:28:00      0.338     0.086     4.000   205.100     0.000
  JUN-13-2016 03:29:00      0.338     0.086     4.000   205.100     0.000
  JUN-13-2016 03:30:00      0.338     0.086     4.000   205.100     0.000
  JUN-13-2016 03:31:00      0.338     0.086     4.000   205.100     0.000
  JUN-13-2016 03:32:00      0.338     0.086     4.000   205.100     0.000
  JUN-13-2016 03:33:00      0.338     0.086     4.000   205.100     0.000
  JUN-13-2016 03:34:00      0.338     0.086     4.000   205.100     0.000
  JUN-13-2016 03:35:00      0.338     0.086     4.000   205.100     0.000
  JUN-13-2016 03:36:00      0.338     0.086     4.000   205.100     0.000
  JUN-13-2016 03:37:00      0.338     0.086     4.000   205.100     0.000
  JUN-13-2016 03:38:00      0.338     0.086     4.000   205.100     0.000
  JUN-13-2016 03:39:00      0.338     0.086     4.000   205.100     0.000
  JUN-13-2016 03:40:00      0.338     0.086     4.000   205.100     0.000
  JUN-13-2016 03:41:00      0.338     0.086     4.000   205.100     0.000
  JUN-13-2016 03:42:00      0.338     0.086     4.000   205.100     0.000
  JUN-13-2016 03:43:00      0.338     0.086     4.000   205.100     0.000
  JUN-13-2016 03:44:00      0.338     0.086     4.000   205.100     0.000
  JUN-13-2016 03:45:00      0.338     0.086     4.000   205.100     0.000
  JUN-13-2016 03:46:00      0.338     0.086     4.000   205.100     0.000
  JUN-13-2016 03:47:00      0.338     0.086     4.000   205.100     0.000
  JUN-13-2016 03:48:00      0.338     0.086     4.000   205.100     0.000
  JUN-13-2016 03:49:00      0.338     0.086     4.000   205.100     0.000
  JUN-13-2016 03:50:00      0.338     0.086     4.000   205.100     0.000
  JUN-13-2016 03:51:00      0.338     0.086     4.000   205.100     0.000
  JUN-13-2016 03:52:00      0.338     0.086     4.000   205.100     0.000
  JUN-13-2016 03:53:00      0.338     0.086     4.000   205.100     0.000
  JUN-13-2016 03:54:00      0.338     0.086     4.000   205.100     0.000
  JUN-13-2016 03:55:00      0.338     0.086     4.000   205.100     0.000
  JUN-13-2016 03:56:00      0.338     0.086     4.000   205.100     0.000
  JUN-13-2016 03:57:00      0.338     0.086     4.000   205.100     0.000
  JUN-13-2016 03:58:00      0.338     0.086     4.000   205.100     0.000
  JUN-13-2016 03:59:00      0.338     0.086     4.000   205.100     0.000
  
  
  <<< Node 2 >>>
  --------------------------------------------------------------------------
                           Inflow  Flooding     Depth      Head       BOD
  Date        Time            CMS       CMS    meters    meters      MG/L
  --------------------------------------------------------------------------
  JUN-13-2016 00:01:00      0.000     0.000     0.200   201.700     0.000
  JUN-13-2016 00:02:00      0.005     0.000     0.262   201.762     0.000
  JUN-13-2016 00:03:00      0.021     0.000     0.335   201.835     0.000
  JUN-13-2016 00:04:00      0.040     0.000     0.394   201.894     0.000
  JUN-13-2016 00:05:00      0.061     0.000     0.445   201.945     0.000
  JUN-13-2016 00:06:00      0.083     0.000     0.492   201.992     0.000
  JUN-13-2016 00:07:00      0.106     0.000     0.535   202.035     0.000
  JUN-13-2016 00:08:00      0.129     0.000     0.588   202.088     0.000
  JUN-13-2016 00:09:00      0.145     0.000     0.600   202.100     0.000
  JUN-13-2016 00:10:00      0.165     0.000     0.600   202.100     0.000
  JUN-13-2016 00:11:00      0.188     0.000     0.600   202.100     0.000
  JUN-13-2016 00:12:00      0.200     0.000     0.600   202.100     0.000
  JUN-13-2016 00:13:00      0.213     0.000     0.600   202.100     0.000
  JUN-13-2016 00:14:00      0.252     0.000     0.600   202.100     0.000
  JUN-13-2016 00:15:00      0.284     0.024     4.000   205.500     0.000
  JUN-13-2016 00:16:00      0.309     0.051     4.000   205.500     0.000
  JUN-13-2016 00:17:00      0.328     0.071     4.000   205.500     0.000
  JUN-13-2016 00:18:00      0.343     0.087     4.000   205.500     0.000
[...]
  JUN-13-2016 03:39:00      0.086     0.681     0.400     1.000     0.000
  JUN-13-2016 03:40:00      0.086     0.681     0.400     1.000     0.000
  JUN-13-2016 03:41:00      0.086     0.681     0.400     1.000     0.000
  JUN-13-2016 03:42:00      0.086     0.681     0.400     1.000     0.000
  JUN-13-2016 03:43:00      0.086     0.681     0.400     1.000     0.000
  JUN-13-2016 03:44:00      0.086     0.681     0.400     1.000     0.000
  JUN-13-2016 03:45:00      0.086     0.681     0.400     1.000     0.000
  JUN-13-2016 03:46:00      0.086     0.681     0.400     1.000     0.000
  JUN-13-2016 03:47:00      0.086     0.681     0.400     1.000     0.000
  JUN-13-2016 03:48:00      0.086     0.681     0.400     1.000     0.000
  JUN-13-2016 03:49:00      0.086     0.681     0.400     1.000     0.000
  JUN-13-2016 03:50:00      0.086     0.681     0.400     1.000     0.000
  JUN-13-2016 03:51:00      0.086     0.681     0.400     1.000     0.000
  JUN-13-2016 03:52:00      0.086     0.681     0.400     1.000     0.000
  JUN-13-2016 03:53:00      0.086     0.681     0.400     1.000     0.000
  JUN-13-2016 03:54:00      0.086     0.681     0.400     1.000     0.000
  JUN-13-2016 03:55:00      0.086     0.681     0.400     1.000     0.000
  JUN-13-2016 03:56:00      0.086     0.681     0.400     1.000     0.000
  JUN-13-2016 03:57:00      0.086     0.681     0.400     1.000     0.000
  JUN-13-2016 03:58:00      0.086     0.681     0.400     1.000     0.000
  JUN-13-2016 03:59:00      0.086     0.681     0.400     1.000     0.000
  
  
  <<< Link GQ196 >>>
  --------------------------------------------------------------------------
                             Flow  Velocity     Depth  Capacity/       BOD
  Date        Time            CMS     m/sec    meters   Setting       MG/L
  --------------------------------------------------------------------------
  JUN-13-2016 00:01:00      0.054     0.510     0.316     0.846     0.000
  JUN-13-2016 00:02:00      0.086     0.681     0.400     1.000     0.000
  JUN-13-2016 00:03:00      0.086     0.681     0.400     1.000     0.000
  JUN-13-2016 00:04:00      0.086     0.681     0.400     1.000     0.000
  JUN-13-2016 00:05:00      0.086     0.681     0.400     1.000     0.000
  JUN-13-2016 00:06:00      0.086     0.681     0.400     1.000     0.000
  JUN-13-2016 00:07:00      0.086     0.681     0.400     1.000     0.000
  JUN-13-2016 00:08:00      0.086     0.681     0.400     1.000     0.000
  JUN-13-2016 00:09:00      0.086     0.681     0.400     1.000     0.000
  JUN-13-2016 00:10:00      0.086     0.681     0.400     1.000     0.000
  JUN-13-2016 00:11:00      0.086     0.681     0.400     1.000     0.000
  JUN-13-2016 00:12:00      0.086     0.681     0.400     1.000     0.000
  JUN-13-2016 00:13:00      0.086     0.681     0.400     1.000     0.000
  JUN-13-2016 00:14:00      0.086     0.681     0.400     1.000     0.000
  JUN-13-2016 00:15:00      0.086     0.681     0.400     1.000     0.000
  JUN-13-2016 00:16:00      0.086     0.681     0.400     1.000     0.000
  JUN-13-2016 00:17:00      0.086     0.681     0.400     1.000     0.000
  JUN-13-2016 00:18:00      0.086     0.681     0.400     1.000     0.000
  JUN-13-2016 00:19:00      0.086     0.681     0.400     1.000     0.000
  JUN-13-2016 00:20:00      0.086     0.681     0.400     1.000     0.000
  JUN-13-2016 00:21:00      0.086     0.681     0.400     1.000     0.000
  JUN-13-2016 00:22:00      0.086     0.681     0.400     1.000     0.000
  JUN-13-2016 00:23:00      0.086     0.681     0.400     1.000     0.000
  JUN-13-2016 00:24:00      0.086     0.681     0.400     1.000     0.000
  JUN-13-2016 00:25:00      0.086     0.681     0.400     1.000     0.000
  JUN-13-2016 00:26:00      0.086     0.681     0.400     1.000     0.000
  JUN-13-2016 00:27:00      0.086     0.681     0.400     1.000     0.000
  JUN-13-2016 00:28:00      0.086     0.681     0.400     1.000     0.000
  JUN-13-2016 00:29:00      0.086     0.681     0.400     1.000     0.000
  JUN-13-2016 00:30:00      0.086     0.681     0.400     1.000     0.000
  JUN-13-2016 00:31:00      0.086     0.681     0.400     1.000     0.000
  JUN-13-2016 00:32:00      0.086     0.681     0.400     1.000     0.000
  JUN-13-2016 00:33:00      0.086     0.681     0.400     1.000     0.000
  JUN-13-2016 00:34:00      0.086     0.681     0.400     1.000     0.000
  JUN-13-2016 00:35:00      0.086     0.681     0.400     1.000     0.000
  JUN-13-2016 00:36:00      0.086     0.681     0.400     1.000     0.000
  JUN-13-2016 00:37:00      0.086     0.681     0.400     1.000     0.000
  JUN-13-2016 00:38:00      0.086     0.681     0.400     1.000     0.000
  JUN-13-2016 00:39:00      0.086     0.681     0.400     1.000     0.000
  JUN-13-2016 00:40:00      0.086     0.681     0.400     1.000     0.000
  JUN-13-2016 00:41:00      0.086     0.681     0.400     1.000     0.000
  JUN-13-2016 00:42:00      0.086     0.681     0.400     1.000     0.000
  JUN-13-2016 00:43:00      0.086     0.681     0.400     1.000     0.000
  JUN-13-2016 00:44:00      0.086     0.681     0.400     1.000     0.000
  JUN-13-2016 00:45:00      0.086     0.681     0.400     1.000     0.000
  JUN-13-2016 00:46:00      0.086     0.681     0.400     1.000     0.000
  JUN-13-2016 00:47:00      0.086     0.681     0.400     1.000     0.000
  JUN-13-2016 00:48:00      0.086     0.681     0.400     1.000     0.000
  JUN-13-2016 00:49:00      0.086     0.681     0.400     1.000     0.000
  JUN-13-2016 00:50:00      0.086     0.681     0.400     1.000     0.000
  JUN-13-2016 00:51:00      0.086     0.681     0.400     1.000     0.000
  JUN-13-2016 00:52:00      0.086     0.681     0.400     1.000     0.000
  JUN-13-2016 00:53:00      0.086     0.681     0.400     1.000     0.000
  JUN-13-2016 00:54:00      0.086     0.681     0.400     1.000     0.000
  JUN-13-2016 00:55:00      0.086     0.681     0.400     1.000     0.000
  JUN-13-2016 00:56:00      0.086     0.681     0.400     1.000     0.000
  JUN-13-2016 00:57:00      0.086     0.681     0.400     1.000     0.000
  JUN-13-2016 00:58:00      0.086     0.681     0.400     1.000     0.000
  JUN-13-2016 00:59:00      0.086     0.681     0.400     1.000     0.000
  JUN-13-2016 01:00:00      0.086     0.681     0.400     1.000     0.000
  JUN-13-2016 01:01:00      0.086     0.681     0.400     1.000     0.000
  JUN-13-2016 01:02:00      0.086     0.681     0.400     1.000     0.000
  JUN-13-2016 01:03:00      0.086     0.681     0.400     1.000     0.000
  JUN-13-2016 01:04:00      0.086     0.681     0.400     1.000     0.000
  JUN-13-2016 01:05:00      0.086     0.681     0.400     1.000     0.000
  JUN-13-2016 01:06:00      0.086     0.681     0.400     1.000     0.000
  JUN-13-2016 01:07:00      0.086     0.681     0.400     1.000     0.000
  JUN-13-2016 01:08:00      0.086     0.681     0.400     1.000     0.000
  JUN-13-2016 01:09:00      0.086     0.681     0.400     1.000     0.000
  JUN-13-2016 01:10:00      0.086     0.681     0.400     1.000     0.000
  JUN-13-2016 01:11:00      0.086     0.681     0.400     1.000     0.000
  JUN-13-2016 01:12:00      0.086     0.681     0.400     1.000     0.000
  JUN-13-2016 01:13:00      0.086     0.681     0.400     1.000     0.000
  JUN-13-2016 01:14:00      0.086     0.681     0.400     1.000     0.000
  JUN-13-2016 01:15:00      0.086     0.681     0.400     1.000     0.000
  JUN-13-2016 01:16:00      0.086     0.681     0.400     1.000     0.000
  JUN-13-2016 01:17:00      0.086     0.681     0.400     1.000     0.000
  JUN-13-2016 01:18:00      0.086     0.681     0.400     1.000     0.000
  JUN-13-2016 01:19:00      0.086     0.681     0.400     1.000     0.000
  JUN-13-2016 01:20:00      0.086     0.681     0.400     1.000     0.000
  JUN-13-2016 01:21:00      0.086     0.681     0.400     1.000     0.000
  JUN-13-2016 01:22:00      0.086     0.681     0.400     1.000     0.000
  JUN-13-2016 01:23:00      0.086     0.681     0.400     1.000     0.000
  JUN-13-2016 01:24:00      0.086     0.681     0.400     1.000     0.000
  JUN-13-2016 01:25:00      0.086     0.681     0.400     1.000     0.000
  JUN-13-2016 01:26:00      0.086     0.681     0.400     1.000     0.000
  JUN-13-2016 01:27:00      0.086     0.681     0.400     1.000     0.000
  JUN-13-2016 01:28:00      0.086     0.681     0.400     1.000     0.000
  JUN-13-2016 01:29:00      0.086     0.681     0.400     1.000     0.000
  JUN-13-2016 01:30:00      0.086     0.681     0.400     1.000     0.000
  JUN-13-2016 01:31:00      0.086     0.681     0.400     1.000     0.000
  JUN-13-2016 01:32:00      0.086     0.681     0.400     1.000     0.000
  JUN-13-2016 01:33:00      0.086     0.681     0.400     1.000     0.000
  JUN-13-2016 01:34:00      0.086     0.681     0.400     1.000     0.000
  JUN-13-2016 01:35:00      0.086     0.681     0.400     1.000     0.000
  JUN-13-2016 01:36:00      0.086     0.681     0.400     1.000     0.000
  JUN-13-2016 01:37:00      0.086     0.681     0.400     1.000     0.000
  JUN-13-2016 01:38:00      0.086     0.681     0.400     1.000     0.000
  JUN-13-2016 01:39:00      0.086     0.681     0.400     1.000     0.000
  JUN-13-2016 01:40:00      0.086     0.681     0.400     1.000     0.000
  JUN-13-2016 01:41:00      0.086     0.681     0.400     1.000     0.000
  JUN-13-2016 01:42:00      0.086     0.681     0.400     1.000     0.000
  JUN-13-2016 01:43:00      0.086     0.681     0.400     1.000     0.000
  JUN-13-2016 01:44:00      0.086     0.681     0.400     1.000     0.000
  JUN-13-2016 01:45:00      0.086     0.681     0.400     1.000     0.000
  JUN-13-2016 01:46:00      0.086     0.681     0.400     1.000     0.000
  JUN-13-2016 01:47:00      0.086     0.681     0.400     1.000     0.000
  JUN-13-2016 01:48:00      0.086     0.681     0.400     1.000     0.000
  JUN-13-2016 01:49:00      0.086     0.681     0.400     1.000     0.000
  JUN-13-2016 01:50:00      0.086     0.681     0.400     1.000     0.000
  JUN-13-2016 01:51:00      0.086     0.681     0.400     1.000     0.000
  JUN-13-2016 01:52:00      0.086     0.681     0.400     1.000     0.000
  JUN-13-2016 01:53:00      0.086     0.681     0.400     1.000     0.000
  JUN-13-2016 01:54:00      0.086     0.681     0.400     1.000     0.000
  JUN-13-2016 01:55:00      0.086     0.681     0.400     1.000     0.000
  JUN-13-2016 01:56:00      0.086     0.681     0.400     1.000     0.000
  JUN-13-2016 01:57:00      0.086     0.681     0.400     1.000     0.000
  JUN-13-2016 01:58:00      0.086     0.681     0.400     1.000     0.000
  JUN-13-2016 01:59:00      0.086     0.681     0.400     1.000     0.000
  JUN-13-2016 02:00:00      0.086     0.681     0.400     1.000     0.000
  JUN-13-2016 02:01:00      0.086     0.681     0.400     1.000     0.000
  JUN-13-2016 02:02:00      0.086     0.681     0.400     1.000     0.000
  JUN-13-2016 02:03:00      0.086     0.681     0.400     1.000     0.000
  JUN-13-2016 02:04:00      0.086     0.681     0.400     1.000     0.000
  JUN-13-2016 02:05:00      0.086     0.681     0.400     1.000     0.000
  JUN-13-2016 02:06:00      0.086     0.681     0.400     1.000     0.000
  JUN-13-2016 02:07:00      0.086     0.681     0.400     1.000     0.000
  JUN-13-2016 02:08:00      0.086     0.681     0.400     1.000     0.000
  JUN-13-2016 02:09:00      0.086     0.681     0.400     1.000     0.000
  JUN-13-2016 02:10:00      0.086     0.681     0.400     1.000     0.000
  JUN-13-2016 02:11:00      0.086     0.681     0.400     1.000     0.000
  JUN-13-2016 02:12:00      0.086     0.681     0.400     1.000     0.000
  JUN-13-2016 02:13:00      0.086     0.681     0.400     1.000     0.000
  JUN-13-2016 02:14:00      0.086     0.681     0.400     1.000     0.000
  JUN-13-2016 02:15:00      0.086     0.681     0.400     1.000     0.000
  JUN-13-2016 02:16:00      0.086     0.681     0.400     1.000     0.000
  JUN-13-2016 02:17:00      0.086     0.681     0.400     1.000     0.000
  JUN-13-2016 02:18:00      0.086     0.681     0.400     1.000     0.000
  JUN-13-2016 02:19:00      0.086     0.681     0.400     1.000     0.000
  JUN-13-2016 02:20:00      0.086     0.681     0.400     1.000     0.000
  JUN-13-2016 02:21:00      0.086     0.681     0.400     1.000     0.000
  JUN-13-2016 02:22:00      0.086     0.681     0.400     1.000     0.000
  JUN-13-2016 02:23:00      0.086     0.681     0.400     1.000     0.000
  JUN-13-2016 02:24:00      0.086     0.681     0.400     1.000     0.000
  JUN-13-2016 02:25:00      0.086     0.681     0.400     1.000     0.000
  JUN-13-2016 02:26:00      0.086     0.681     0.400     1.000     0.000
  JUN-13-2016 02:27:00      0.086     0.681     0.400     1.000     0.000
  JUN-13-2016 02:28:00      0.086     0.681     0.400     1.000     0.000
  JUN-13-2016 02:29:00      0.086     0.681     0.400     1.000     0.000
  JUN-13-2016 02:30:00      0.086     0.681     0.400     1.000     0.000
  JUN-13-2016 02:31:00      0.086     0.681     0.400     1.000     0.000
  JUN-13-2016 02:32:00      0.086     0.681     0.400     1.000     0.000
  JUN-13-2016 02:33:00      0.086     0.681     0.400     1.000     0.000
  JUN-13-2016 02:34:00      0.086     0.681     0.400     1.000     0.000
  JUN-13-2016 02:35:00      0.086     0.681     0.400     1.000     0.000
  JUN-13-2016 02:36:00      0.086     0.681     0.400     1.000     0.000
  JUN-13-2016 02:37:00      0.086     0.681     0.400     1.000     0.000
  JUN-13-2016 02:38:00      0.086     0.681     0.400     1.000     0.000
  JUN-13-2016 02:39:00      0.086     0.681     0.400     1.000     0.000
  JUN-13-2016 02:40:00      0.086     0.681     0.400     1.000     0.000
  JUN-13-2016 02:41:00      0.086     0.681     0.400     1.000     0.000
  JUN-13-2016 02:42:00      0.086     0.681     0.400     1.000     0.000
  JUN-13-2016 02:43:00      0.086     0.681     0.400     1.000     0.000
  JUN-13-2016 02:44:00      0.086     0.681     0.400     1.000     0.000
  JUN-13-2016 02:45:00      0.086     0.681     0.400     1.000     0.000
  JUN-13-2016 02:46:00      0.086     0.681     0.400     1.000     0.000
  JUN-13-2016 02:47:00      0.086     0.681     0.400     1.000     0.000
  JUN-13-2016 02:48:00      0.086     0.681     0.400     1.000     0.000
  JUN-13-2016 02:49:00      0.086     0.681     0.400     1.000     0.000
  JUN-13-2016 02:50:00      0.086     0.681     0.400     1.000     0.000
  JUN-13-2016 02:51:00      0.086     0.681     0.400     1.000     0.000
  JUN-13-2016 02:52:00      0.086     0.681     0.400     1.000     0.000
  JUN-13-2016 02:53:00      0.086     0.681     0.400     1.000     0.000
  JUN-13-2016 02:54:00      0.086     0.681     0.400     1.000     0.000
  JUN-13-2016 02:55:00      0.086     0.681     0.400     1.000     0.000
  JUN-13-2016 02:56:00      0.086     0.681     0.400     1.000     0.000
  JUN-13-2016 02:57:00      0.086     0.681     0.400     1.000     0.000
  JUN-13-2016 02:58:00      0.086     0.681     0.400     1.000     0.000
  JUN-13-2016 02:59:00      0.086     0.681     0.400     1.000     0.000
  JUN-13-2016 03:00:00      0.086     0.681     0.400     1.000     0.000
  JUN-13-2016 03:01:00      0.086     0.681     0.400     1.000     0.000
  JUN-13-2016 03:02:00      0.086     0.681     0.400     1.000     0.000
  JUN-13-2016 03:03:00      0.086     0.681     0.400     1.000     0.000
  JUN-13-2016 03:04:00      0.086     0.681     0.400     1.000     0.000
  JUN-13-2016 03:05:00      0.086     0.681     0.400     1.000     0.000
  JUN-13-2016 03:06:00      0.086     0.681     0.400     1.000     0.000
  JUN-13-2016 03:07:00      0.086     0.681     0.400     1.000     0.000
  JUN-13-2016 03:08:00      0.086     0.681     0.400     1.000     0.000
  JUN-13-2016 03:09:00      0.086     0.681     0.400     1.000     0.000
  JUN-13-2016 03:10:00      0.086     0.681     0.400     1.000     0.000
  JUN-13-2016 03:11:00      0.086     0.681     0.400     1.000     0.000
  JUN-13-2016 03:12:00      0.086     0.681     0.400     1.000     0.000
  JUN-13-2016 03:13:00      0.086     0.681     0.400     1.000     0.000
  JUN-13-2016 03:14:00      0.086     0.681     0.400     1.000     0.000
  JUN-13-2016 03:15:00      0.086     0.681     0.400     1.000     0.000
  JUN-13-2016 03:16:00      0.086     0.681     0.400     1.000     0.000
  JUN-13-2016 03:17:00      0.086     0.681     0.400     1.000     0.000
  JUN-13-2016 03:18:00      0.086     0.681     0.400     1.000     0.000
  JUN-13-2016 03:19:00      0.086     0.681     0.400     1.000     0.000
  JUN-13-2016 03:20:00      0.086     0.681     0.400     1.000     0.000
  JUN-13-2016 03:21:00      0.086     0.681     0.400     1.000     0.000
  JUN-13-2016 03:22:00      0.086     0.681     0.400     1.000     0.000
  JUN-13-2016 03:23:00      0.086     0.681     0.400     1.000     0.000
  JUN-13-2016 03:24:00      0.086     0.681     0.400     1.000     0.000
  JUN-13-2016 03:25:00      0.086     0.681     0.400     1.000     0.000
  JUN-13-2016 03:26:00      0.086     0.681     0.400     1.000     0.000
  JUN-13-2016 03:27:00      0.086     0.681     0.400     1.000     0.000
  JUN-13-2016 03:28:00      0.086     0.681     0.400     1.000     0.000
  JUN-13-2016 03:29:00      0.086     0.681     0.400     1.000     0.000
  JUN-13-2016 03:30:00      0.086     0.681     0.400     1.000     0.000
  JUN-13-2016 03:31:00      0.086     0.681     0.400     1.000     0.000
  JUN-13-2016 03:32:00      0.086     0.681     0.400     1.000     0.000
  JUN-13-2016 03:33:00      0.086     0.681     0.400     1.000     0.000
  JUN-13-2016 03:34:00      0.086     0.681     0.400     1.000     0.000
  JUN-13-2016 03:35:00      0.086     0.681     0.400     1.000     0.000
  JUN-13-2016 03:36:00      0.086     0.681     0.400     1.000     0.000
  JUN-13-2016 03:37:00      0.086     0.681     0.400     1.000     0.000
  JUN-13-2016 03:38:00      0.086     0.681     0.400     1.000     0.000
  JUN-13-2016 03:39:00      0.086     0.681     0.400     1.000     0.000
  JUN-13-2016 03:40:00      0.086     0.681     0.400     1.000     0.000
  JUN-13-2016 03:41:00      0.086     0.681     0.400     1.000     0.000
  JUN-13-2016 03:42:00      0.086     0.681     0.400     1.000     0.000
  JUN-13-2016 03:43:00      0.086     0.681     0.400     1.000     0.000
  JUN-13-2016 03:44:00      0.086     0.681     0.400     1.000     0.000
  JUN-13-2016 03:45:00      0.086     0.681     0.400     1.000     0.000
  JUN-13-2016 03:46:00      0.086     0.681     0.400     1.000     0.000
  JUN-13-2016 03:47:00      0.086     0.681     0.400     1.000     0.000
  JUN-13-2016 03:48:00      0.086     0.681     0.400     1.000     0.000
  JUN-13-2016 03:49:00      0.086     0.681     0.400     1.000     0.000
  JUN-13-2016 03:50:00      0.086     0.681     0.400     1.000     0.000
  JUN-13-2016 03:51:00      0.086     0.681     0.400     1.000     0.000
  JUN-13-2016 03:52:00      0.086     0.681     0.400     1.000     0.000
  JUN-13-2016 03:53:00      0.086     0.681     0.400     1.000     0.000
  JUN-13-2016 03:54:00      0.086     0.681     0.400     1.000     0.000
  JUN-13-2016 03:55:00      0.086     0.681     0.400     1.000     0.000
  JUN-13-2016 03:56:00      0.086     0.681     0.400     1.000     0.000
  JUN-13-2016 03:57:00      0.086     0.681     0.400     1.000     0.000
  JUN-13-2016 03:58:00      0.086     0.681     0.400     1.000     0.000
  JUN-13-2016 03:59:00      0.086     0.681     0.400     1.000     0.000
  

  Analysis begun on:  Wed Jun 20 14:51:37 2018
  Analysis ended on:  Wed Jun 20 14:51:37 2018
  Total elapsed time: < 1 sec